<?xml version="1.0" encoding="UTF-8"?>

<!-- generated on 2025-10-14 19:55:40.756124 by Eclipse SUMO osmWebWizard.py v1_24_0+1438-cbc487a0514
  options: 
-->

<additional xmlns:xsi="http://www.w3.org/2001/XMLSchema-instance" xsi:noNamespaceSchemaLocation="http://sumo.dlr.de/xsd/additional_file.xsd">
   <edgeData id="edgeData" period="3600" file="resultados/edgedata.xml"/>
</additional>
